@<TRIPOS>MOLECULE
A20
   13    13     1     0     0
SMALL
resp


@<TRIPOS>ATOM
      1 O1           2.3070    -0.1120    -0.0000 oh         1 A20    -0.539500
      2 C1           0.9410    -0.0240     0.0000 ca         1 A20     0.414080
      3 C2           0.2640     1.2000     0.0000 ca         1 A20    -0.331620
      4 C3          -1.1320     1.2190     0.0000 ca         1 A20    -0.079090
      5 C4          -1.8570     0.0280     0.0000 ca         1 A20    -0.213840
      6 C5          -1.1720    -1.1900     0.0000 ca         1 A20    -0.079090
      7 C6           0.2210    -1.2240     0.0000 ca         1 A20    -0.331620
      8 H1           2.6790     0.7840     0.0000 ho         1 A20     0.366860
      9 H2           0.8270     2.1320    -0.0000 ha         1 A20     0.182450
     10 H3          -1.6500     2.1750     0.0000 ha         1 A20     0.141940
     11 H4          -2.9430     0.0470     0.0000 ha         1 A20     0.145030
     12 H5          -1.7260    -2.1260     0.0000 ha         1 A20     0.141940
     13 H6           0.7660    -2.1630     0.0000 ha         1 A20     0.182460
@<TRIPOS>BOND
     1     1     2 1   
     2     1     8 1   
     3     2     3 ar  
     4     2     7 ar  
     5     3     4 ar  
     6     3     9 1   
     7     4     5 ar  
     8     4    10 1   
     9     5     6 ar  
    10     5    11 1   
    11     6     7 ar  
    12     6    12 1   
    13     7    13 1   
@<TRIPOS>SUBSTRUCTURE
     1 A20         1 TEMP              0 ****  ****    0 ROOT
