@<TRIPOS>MOLECULE
E20
   10     9     1     0     0
SMALL
resp


@<TRIPOS>ATOM
      1 O1          -1.3170    -0.5760     0.2220 oh         1 E20    -0.658570
      2 C1          -0.6850     0.6110    -0.2630 c3         1 E20     0.194930
      3 C2           0.7410     0.5730     0.2660 c3         1 E20     0.194930
      4 O2           1.4210    -0.5830    -0.1900 oh         1 E20    -0.658570
      5 H1          -2.1360    -0.7140    -0.2760 ho         1 E20     0.420480
      6 H2          -1.2040     1.5160     0.0910 h1         1 E20     0.021580
      7 H3          -0.6650     0.6250    -1.3620 h1         1 E20     0.021580
      8 H4           0.7160     0.6180     1.3670 h1         1 E20     0.021580
      9 H5           1.2990     1.4430    -0.0960 h1         1 E20     0.021580
     10 H6           0.8180    -1.3210     0.0000 ho         1 E20     0.420480
@<TRIPOS>BOND
     1     1     2 1   
     2     1     5 1   
     3     2     3 1   
     4     2     6 1   
     5     2     7 1   
     6     3     4 1   
     7     3     8 1   
     8     3     9 1   
     9     4    10 1   
@<TRIPOS>SUBSTRUCTURE
     1 E20         1 TEMP              0 ****  ****    0 ROOT
