@<TRIPOS>MOLECULE
A00
    9     8     1     0     0
SMALL
resp


@<TRIPOS>ATOM
      1 C1           0.0000     1.1710    -0.1950 c3         1 A00     0.017940
      2 O1           0.0000    -0.0000     0.5900 os         1 A00    -0.360040
      3 C2          -0.0000    -1.1710    -0.1950 c3         1 A00     0.017940
      4 H1           0.0000     2.0220     0.4910 h1         1 A00     0.054020
      5 H2          -0.8930     1.2320    -0.8400 h1         1 A00     0.054020
      6 H3           0.8930     1.2320    -0.8400 h1         1 A00     0.054020
      7 H4          -0.0000    -2.0220     0.4910 h1         1 A00     0.054020
      8 H5           0.8930    -1.2320    -0.8400 h1         1 A00     0.054020
      9 H6          -0.8930    -1.2320    -0.8400 h1         1 A00     0.054060
@<TRIPOS>BOND
     1     1     2 1   
     2     1     4 1   
     3     1     5 1   
     4     1     6 1   
     5     2     3 1   
     6     3     7 1   
     7     3     8 1   
     8     3     9 1   
@<TRIPOS>SUBSTRUCTURE
     1 A00         1 TEMP              0 ****  ****    0 ROOT
