@<TRIPOS>MOLECULE
A37
   12    12     1     0     0
SMALL
resp


@<TRIPOS>ATOM
      1 C1           2.0630     0.0290    -0.0000 c3         1 A37    -0.421970
      2 N1           0.6110     0.0170    -0.0000 na         1 A37     0.237970
      3 C2          -0.2260     1.1160    -0.0000 cc         1 A37    -0.500990
      4 C3          -1.5010     0.6080    -0.0000 cd         1 A37     0.169280
      5 N2          -1.4780    -0.7690    -0.0000 nd         1 A37    -0.557900
      6 C4          -0.2010    -1.0840    -0.0000 cc         1 A37     0.116510
      7 H1           2.4490     0.5350     0.8910 h1         1 A37     0.151410
      8 H2           2.4490     0.5350    -0.8910 h1         1 A37     0.151410
      9 H3           2.4250    -1.0020    -0.0000 h1         1 A37     0.151410
     10 H4           0.1610     2.1240    -0.0000 h4         1 A37     0.250940
     11 H5          -2.4350     1.1540    -0.0000 h4         1 A37     0.114590
     12 H6           0.2050    -2.0880    -0.0000 h5         1 A37     0.137340
@<TRIPOS>BOND
     1     1     2 1   
     2     1     7 1   
     3     1     8 1   
     4     1     9 1   
     5     2     3 1   
     6     2     6 1   
     7     3     4 2   
     8     3    10 1   
     9     4     5 1   
    10     4    11 1   
    11     5     6 2   
    12     6    12 1   
@<TRIPOS>SUBSTRUCTURE
     1 A37         1 TEMP              0 ****  ****    0 ROOT
