@<TRIPOS>MOLECULE
A01
   12    12     1     0     0
SMALL
resp


@<TRIPOS>ATOM
      1 C1           1.2100     0.6980     0.0000 ca         1 A01    -0.132920
      2 C2           0.0000     1.3970    -0.0000 ca         1 A01    -0.132920
      3 C3          -1.2100     0.6980    -0.0000 ca         1 A01    -0.132920
      4 C4          -1.2100    -0.6980    -0.0000 ca         1 A01    -0.132920
      5 C5          -0.0000    -1.3970    -0.0000 ca         1 A01    -0.132920
      6 C6           1.2100    -0.6980     0.0000 ca         1 A01    -0.132920
      7 H1           2.1510     1.2420     0.0000 ha         1 A01     0.132920
      8 H2           0.0000     2.4840    -0.0000 ha         1 A01     0.132920
      9 H3          -2.1510     1.2420    -0.0000 ha         1 A01     0.132920
     10 H4          -2.1510    -1.2420    -0.0000 ha         1 A01     0.132920
     11 H5          -0.0000    -2.4840    -0.0000 ha         1 A01     0.132920
     12 H6           2.1510    -1.2420     0.0000 ha         1 A01     0.132920
@<TRIPOS>BOND
     1     1     2 ar  
     2     1     6 ar  
     3     1     7 1   
     4     2     3 ar  
     5     2     8 1   
     6     3     4 ar  
     7     3     9 1   
     8     4     5 ar  
     9     4    10 1   
    10     5     6 ar  
    11     5    11 1   
    12     6    12 1   
@<TRIPOS>SUBSTRUCTURE
     1 A01         1 TEMP              0 ****  ****    0 ROOT
