@<TRIPOS>MOLECULE
B71
    6     5     1     0     0
SMALL
resp


@<TRIPOS>ATOM
      1 C1           0.1520     0.3830     1.1070 c3         1 B71    -0.444600
      2 C2          -0.0360    -0.0910    -0.2630 c1         1 B71     0.445830
      3 N1          -0.1860    -0.4670    -1.3500 n1         1 B71    -0.501640
      4 H1           0.8160     1.2540     1.1200 hc         1 B71     0.166800
      5 H2           0.5970    -0.4040     1.7240 hc         1 B71     0.166800
      6 H3          -0.8090     0.6700     1.5450 hc         1 B71     0.166810
@<TRIPOS>BOND
     1     1     2 1   
     2     1     4 1   
     3     1     5 1   
     4     1     6 1   
     5     2     3 3   
@<TRIPOS>SUBSTRUCTURE
     1 B71         1 TEMP              0 ****  ****    0 ROOT
